[TITLE]
-----                                                                           
SIR4100316470 - Liverpool Cancer Centre - 63mm supply (2.5l/s) and 90mm fire sup
ply off 9" main in Mason St. - DMA 189-11                                       

[JUNCTIONS]
;ID	Elev	Demand	Pattern
00197300	32.4	0.0		;
00197400	36.069999	6.0	17901T1	;
A0197400	36.069999	0.0		;
001EE800	46.939998	2.0	17902T1	;1790211CP
00196900	40.37	34.0	17911T1	;
A0196900	40.37	0.0		;
00011A00	40.040001	4.0	17911T1	;
A0011A00	40.040001	0.0		;
041B7D00	31.429999	0.0		;
A41B7D00	31.429999	0.0		;
001F7F00	35.440003	0.0		;
A01F7F00	35.440003	0.0		;
0024BF00	33.78	0.0		;
A024BF00	33.78	0.0		;
041AF310	40.870002	0.0		;
A41AF310	40.870002	0.0		;
00170410	32.010003	39.0	17901T1	;
A0170410	32.010003	0.0		;
00248510	33.745	11.0	17902T1	;17902P07
00248610	40.870002	1.0	17902T1	;
A0248610	40.870002	0.0		;
04120810	30.600001	2.0	17902T1	;
A4120810	30.600001	0.0		;
00196910	40.29	0.0		;
A0196910	40.29	0.0		;
00196B10	34.299998	28.0	17909T1	;
00156E10	39.22	5.0	17902T1	;
02E78E10	35.999999	0.0		;
00013F10	38.710003	9.0	17911T1	;
00197320	31.8	2.0	17910T1	;
00170420	31.99	4.0	17901T1	;
000FC620	33.029999	0.0		;
0013F720	37.080003	0.0		;
A013F720	37.080003	0.0		;
04134920	40.730001	0.0		;
A4134920	40.730001	0.0		;
00196920	40.200001	10.0	17911T1	;
000F2E20	35.590001	60.0	17910T1	;
A00F2E20	35.590001	0.0		;
0028EF20	64.550002	0.0		;
A028EF20	64.550002	0.0		;
00028530	35.64	0.0		;
00011930	39.340002	8.0	17911T1	;
A0011930	39.340002	0.0		;
00196930	40.200001	0.0		;
0002A930	35.520001	9.0	17911T1	;1791111CP
03D36A30	37.709999	1.0	17901T1	;
00196A30	38.139999	16.0	17901T1	;
00248340	36.090001	20.0	17902T1	;
04138440	47.260002	0.0		;
A4138440	47.260002	0.0		;
041AF440	43.8	0.0		;
0414E640	35.07	0.0		;
A414E640	35.07	0.0		;
00196840	37.790001	13.0	17910T1	;
000A1A40	32.470001	1.0	17902T1	;
00196A40	40.500001	25.0	17911T1	;
A0196A40	40.500001	0.0		;
04166C40	32.71	3.0	17910T1	;
00156E40	34.689998	0.0		;
00021250	35.360001	0.0		;
00197350	30.939999	2.0	17910T1	;
0018C450	35.3	0.0		;
00170550	30.410001	11.0	17910T1	;
00106750	38.560001	3.0	17901T1	;
A0106750	38.560001	0.0		;
00196850	39.6	0.0		;
00196950	39.800002	1.0	17901T1	;
0410A950	37.350003	9.0	17909T1	;
A410A950	37.350003	0.0		;
00196A50	40.500001	11.0	17911T1	;
A0196A50	40.500001	0.0		;
03CF2E50	30.289999	15.0	17901T1	;
A3CF2E50	30.289999	0.0		;
00039F50	24.700001	26.0	17901T1	;
041B1360	32.71	0.0		;
A41B1360	32.71	0.0		;
000DE360	39.469999	9.0	17901T1	;
041AF360	43.889999	0.0		;
00170460	26.54	0.0		;
A0170460	26.54	0.0		;
040D5660	40.200001	6.0	17902T1	;
00178760	31.999999	0.0		;
001EE760	34.520001	1.0	17902T1	;
00178860	32.989997	21.0	17910T1	;
A0178860	32.989997	0.0		;
00011960	38.860001	14.0	17911T1	;
A0011960	38.860001	0.0		;
00196960	39.849999	1.0	17901T1	;
A0196960	39.849999	0.0		;
00196A60	40.200001	18.0	17901T1	;
A0196A60	40.200001	0.0		;
040D6A60	34.739997	5.0	17909T1	;
00011F60	39.98	4.0	17911T1	;
A0011F60	39.98	0.0		;
00124370	25.990001	0.0		;
001EE770	43.969998	1.0	17902T1	;
02B15A70	38.900001	0.0		;
00196B70	40.299999	3.0	17909T1	;
000F7C70	36.060002	6.0	17901T1	;
A00F7C70	36.060002	0.0		;
040B6280	34.779999	2.0	17902T1	;
00197380	29.17	5.0	17910T1	;
A0197380	29.17	0.0		;
03E8E880	34.629997	3.0	17902T1	;
00196A80	40.397998	4.0	17911T1	;17911P03
A0196B80	40.800001	0.0		;
03DDD690	29.570001	0.0		;
A3DDD690	29.570001	0.0		;
001EE790	43.969998	0.0		;
00011990	38.860001	2.0	17911T1	;
000F6F90	37.340001	6.0	17901T1	;
040B53A0	34.15	2.0	17909T1	;
A40B53A0	34.15	0.0		;
001973A0	22.859999	0.0		;
041BA3A0	32.14	0.0		;
001EE8A0	58.710001	0.0		;
A01EE8A0	58.710001	0.0		;
000119A0	39.950002	1.0	17911T1	;
001969A0	40.200001	0.0		;
A01969A0	40.200001	0.0		;
001779A0	37.119998	0.0		;
A01779A0	37.119998	0.0		;
00196AA0	40.280001	16.0	17911T1	;
A0196AA0	40.280001	0.0		;
03DABAA0	30.66	0.0		;
A3DABAA0	30.66	0.0		;
00202CA0	29.610001	0.0		;
0018C2B0	31.579999	0.0		;
001967B0	43.87	0.0		;
A01967B0	43.87	0.0		;
001EE7B0	47.309999	0.0		;
00196AB0	40.200001	47.0	17901T1	;
00130BB0	38.61	10.0	17901T1	;
0017BBB0	38.710003	22.0	17901T1	;
03D96DB0	32.459999	20.0	17909T1	;
A3D96DB0	32.459999	0.0		;
03CEBEB0	38.771	4.0	17910T1	;17910P11
001972C0	28.949999	23.0	17910T1	;
A01972C0	28.949999	0.0		;
001704C0	27.5	1.0	17910T1	;
A01704C0	27.5	0.0		;
041B06C0	42.850002	0.0		;
A41B06C0	42.850002	0.0		;
03EF97C0	30.790001	0.0		;
001EE7C0	43.380002	12.0	17902T1	;
041739C0	33.09	0.0		;
A41739C0	33.09	0.0		;
00202CC0	31.740001	2.0	17909T1	;
02B190D0	40.459999	0.0		;
A2B190D0	40.459999	0.0		;
002484D0	35.549999	7.0	17902T1	;
00196BD0	35.419997	0.0		;
A0196BD0	35.419997	0.0		;
040D51E0	34.099999	1.0	17902T1	;
A40D51E0	34.099999	0.0		;
001967E0	40.560002	1.0	17901T1	;
001EE7E0	40.52	3.0	17902T1	;
041AFAE0	42.390002	0.0		;
A41AFAE0	42.390002	0.0		;
03CF20F0	38.681998	11.0	17910T1	;17910P07
A3CF20F0	39.570002	0.0		;
002970F0	29.570001	9.0	17909T1	;
001780F0	40.689999	2.0	17911T1	;
A01780F0	40.689999	0.0		;
0013F6F0	39.779999	3.0	17901T1	;
00215BF0	40.260002	25.0	17902T1	;
00156DF0	36.350003	1.0	17902T1	;
A0156DF0	36.350003	0.0		;
0024BEF0	33.970002	0.0		;
17901001	40.230669	0.0		;
00197301	32.200001	0.0		;
A0197301	32.200001	0.0		;
00170401	35.699997	0.0		;
A0170401	35.699997	0.0		;
00197401	36.25	10.0	17901T1	;
04138401	49.12	0.0		;
A4138401	49.12	0.0		;
00170501	26.329999	0.0		;
00011A01	40.180002	8.0	17911T1	;
00196A01	40.430001	3.0	17901T1	;
A0196A01	40.430001	0.0		;
00215C01	40.75	0.0		;
00124011	27.630001	16.0	17910T1	;
A0124011	27.630001	0.0		;
041B1111	41.309998	1.0	17902T1	;
00197311	32.52	0.0		;
A0197311	32.52	0.0		;
04134911	40.689999	0.0		;
A4134911	40.689999	0.0		;
03CFD911	42.250001	21.0	17902T1	;
00196A11	40.619998	0.0		;
001FAA11	40.629998	14.0	17902T1	;
03DABA11	30.560001	0.0		;
041CFA11	41.009998	0.0		;
00196C11	39.309999	21.0	17909T1	;
00156E11	39.61	1.0	17902T1	;
0019E221	34.710003	2.0	17902T1	;
00197321	31.619999	1.0	17910T1	;
A0197321	31.619999	0.0		;
041AFA21	43.910002	0.0		;
00197331	31.98	5.0	17910T1	;
A0197331	31.98	0.0		;
00196C31	36.799999	11.0	17909T1	;
A0196C31	36.799999	0.0		;
00197341	34.689998	7.0	17909T1	;
00011941	39.91	0.0		;
A0011941	39.91	0.0		;
0024BF41	31.159999	6.0	17909T1	;
041B1251	40.200001	11.0	17902T1	;
00197351	31.539999	3.0	17910T1	;
04121451	35.170001	1.0	17902T1	;
04121B51	34.239997	0.0		;
A4121B51	34.239997	0.0		;
00123F51	30.739999	13.0	17910T1	;
00197361	25.990001	0.0		;
A0197361	25.990001	0.0		;
00214661	64.330002	0.0		;
001EE761	34.099999	1.0	17902T1	;
A01EE761	34.099999	0.0		;
00178861	33.290002	27.0	17910T1	;
A0178861	33.290002	0.0		;
041B7C61	31.480001	1.0	17902T1	;
03DCDD61	26.32	0.0		;
04183071	48.120001	0.0		;
040B6271	34.700002	6.0	17902T1	;
A40B6271	34.700002	0.0		;
A0124371	25.949999	0.0		;
03EF9471	30.629999	2.0	17909T1	;
00297571	31.360001	0.0		;
A0297571	31.360001	0.0		;
001EE771	45.809998	3.0	17902T1	;
00196A71	40.159999	4.0	17901T1	;17901P05
00215B71	40.200001	0.0		;
A0215B71	40.200001	0.0		;
00196B71	40.6	8.0	17909T1	;
00196C71	34.8	1.0	17909T1	;
A0196C71	34.8	0.0		;
001E9081	33.580003	9.0	17902T1	;
A01E9081	33.580003	0.0		;
0001E781	37.690003	0.0		;
00196A81	40.500001	2.0	17911T1	;
041A7D81	64.619993	0.0		;
00156E81	44.649999	2.0	17902T1	;
A0156E81	44.649999	0.0		;
000FB191	39.559998	0.0		;17901P10
00189291	34.700002	12.0	17909T1	;
A0189291	34.700002	0.0		;
001EE691	40.309999	4.0	17902T1	;
040A2791	35.630001	0.0		;
A40A2791	35.630001	0.0		;
001EE791	42.139999	3.0	17902T1	;
A01EE791	42.139999	0.0		;
001F9A91	39.019998	2.0	17902T1	;
00215B91	41.599999	0.0		;
002483A1	35.319999	0.0		;
001704A1	28.02	0.0		;
A01704A1	28.02	0.0		;
03EF84A1	26.549999	0.0		;
A3EF84A1	26.549999	0.0		;
001EE7A1	44.060002	12.0	17902T1	;
00196BA1	37.920003	4.0	17909T1	;
04039EA1	39.660001	36.0	17910T1	;
00156FA1	40.849998	10.0	17902T1	;
A0156FA1	40.849998	0.0		;
041B10B1	41.170002	0.0		;
001972B1	30.739999	2.0	17910T1	;
001706B1	40.490002	30.0	17911T1	;
001779B1	35.209999	3.0	17902T1	;
A01779B1	35.209999	0.0		;
00196BB1	34.869998	0.0		;
000213C1	33.13	12.0	17910T1	;
A00213C1	33.13	0.0		;
03E9B3C1	35.699997	2.0	17909T1	;
A3E9B3C1	35.699997	0.0		;
001EE7C1	37.409999	4.0	17902T1	;
000609C1	31.900001	0.0		;
00196AC1	40.200001	0.0		;
041B00D1	40.74	1.0	17902T1	;
A41B00D1	40.74	0.0		;
001972D1	27.970001	3.0	17910T1	;
A01972D1	27.970001	0.0		;
002484D1	35.19	14.0	17902T1	;
A02484D1	35.19	0.0		;
001FA9D1	41.609998	3.0	17902T1	;
A01FA9D1	41.609998	0.0		;
0024BED1	31.95	2.0	17909T1	;
040D52E1	38.95	6.1382	TYPE2	;
001973E1	36.29	0.0		;
001CA9E1	35.389999	0.0		;
00196AE1	40.200001	3.0	17901T1	;
03D23EE1	36.86	6.0	17901T1	;
0024BEE1	34.310002	4.0	17909T1	;
001780F1	40.29	8.0	17911T1	;
001972F1	32.430001	6.0	17910T1	;
001973F1	36.299999	2.0	17901T1	;
A01973F1	36.299999	0.0		;
041E38F1	35.23	3.0	17902T1	;
001968F1	40.500001	13.0	17911T1	;
A01968F1	40.500001	0.0		;
00215BF1	41.299999	6.0	17902T1	;
00196BF1	34.810002	0.0		;
A0196BF1	34.810002	0.0		;
041A7CF1	64.679999	0.0		;
00156DF1	37.21	0.0		;
17901002	40.230078	0.0		;
00248302	41.630002	4.0	17902T1	;
000C8302	30.28	2.0	17910T1	;
034AD302	26.559999	4.0	17910T1	;
0411E502	30.969999	10.0	17910T1	;
A411E502	30.969999	0.0		;
0013F702	40.759999	8.0	17901T1	;
00196802	39.730002	0.0		;
A0196802	39.730002	0.0		;
001FAA02	40.6	0.0		;
00196C02	39.779999	16.0	17909T1	;
00156E02	35.23	1.0	17902T1	;
0024BF02	33.380001	2.0	17909T1	;
A024BF02	33.380001	0.0		;
00124012	25.580001	0.0		;
00248312	35.19	3.0	17902T1	;
0018C412	34.790001	4.0	17909T1	;
00024712	36.610001	9.0	17911T1	;
04120812	30.739999	5.0	17902T1	;
00013912	39.479998	8.0	17911T1	;
00196912	40.29	14.0	17911T1	;
000E3D12	32.540001	4.0	17910T1	;
03CF2E12	32.220002	2.0	17901T1	;
A3CF2E12	32.220002	0.0		;
02E78E12	35.989997	0.0		;
0024BF12	32.3	0.0		;
041B1022	40.629998	0.0		;
000FB122	38.089999	6.0	17901T1	;
00248322	35.510001	0.0		;
03474922	27.22	3.0	17910T1	;
A3474922	27.22	0.0		;
000E2B22	40.410002	39.0	17901T1	;
02B03D22	39.68	0.0		;
0028EF22	64.560011	0.0		;
00178142	40.59	22.0	17911T1	;
04138442	47.389999	0.0		;
A4138442	47.389999	0.0		;
00196842	39.779999	38.0	17910T1	;
A0196842	39.779999	0.0		;
0024BF42	29.540001	5.0	17909T1	;
03E8E752	35.079997	6.0	17902T1	;
0013F752	34.180001	3.0	17901T1	;
00196852	39.6	0.0		;
00196952	39.800002	0.0		;
A0196952	39.800002	0.0		;
040D6952	34.8	5.0	17909T1	;
0001F952	38.11	2.0	17911T1	;
00027B52	40.079999	7.0	17911T1	;
03B0CF52	40.200001	1.0	17911T1	;
A3B0CF52	40.200001	0.0		;
00105062	35.469997	26.0	17901T1	;
A0105062	35.469997	0.0		;
0328E262	39.420002	2.0	17910T1	;
A328E262	39.420002	0.0		;
041B1362	32.350003	3.0	17910T1	;
00197362	26.000001	0.0		;
00170562	31.53	4.0	17910T1	;
A0170562	31.53	0.0		;
00196762	43.780001	0.0		;
00196A62	40.200001	20.0	17901T1	;
000F6F62	36.320001	6.0	17901T1	;
A00F6F62	36.320001	0.0		;
03DCF072	30.070001	0.0		;
041E6172	35.290001	2.0	17902T1	;
04167572	27.349999	0.0		;
04167672	31.389999	0.0		;
00196C72	34.680001	0.0		;
A0196C72	34.680001	0.0		;
00156E72	42.58	3.0	17902T1	;
A0156E72	42.58	0.0		;
0002AF72	35.630001	12.0	17901T1	;
000FE082	39.960001	0.0		;
040B6282	34.830001	2.0	17902T1	;
0414E782	33.029999	1.0	17909T1	;
00196882	39.859998	3.0	17910T1	;
0412DB82	35.87	11.0	17910T1	;
A412DB82	35.87	0.0		;
00297092	30.05	0.0		;
001EE692	40.180002	1.0	17902T1	;
A01EE692	40.180002	0.0		;
001EE792	42.989998	0.0		;
A01EE792	42.989998	0.0		;
04169892	41.009998	0.0		;
00177992	35.659999	0.0		;
A0177992	35.659999	0.0		;
040D4A92	29.2	8.0	17910T1	;
001F9A92	39.23	12.0	17902T1	;
03DABA92	30.54	0.0		;
03DDD1A2	28.29	3.0	17910T1	;
001972A2	25.679999	23.0	17910T1	;
A01972A2	25.679999	0.0		;
002483A2	35.349999	0.0		;
0414E5A2	37.690003	0.0		;
001EE7A2	43.020001	5.0	17902T1	;
A01EE7A2	43.020001	0.0		;
001779A2	35.209999	0.0		;
001E1AA2	41.940001	8.0	17902T1	;
A01E1AA2	41.940001	0.0		;
0017CAA2	33.270001	3.0	17910T1	;
A017CAA2	33.270001	0.0		;
040D4BA2	28.29	2.0	17910T1	;
00196BA2	37.150001	8.0	17909T1	;
0000FCA2	30.300001	20.0	17901T1	;
041E00B2	35.119999	0.0		;
A41E00B2	35.119999	0.0		;
001892B2	32.29	0.0		;
001204B2	41.009998	2.0	17901T1	;
00196AB2	40.260002	20.0	17901T1	;
00196BB2	37.799998	7.0	17909T1	;
A0196BB2	37.799998	0.0		;
03D96DB2	32.309997	0.0		;
A3D96DB2	32.309997	2.5701	TYPE3	;
0018C2C2	31.769999	6.0	17909T1	;
A018C2C2	31.769999	0.0		;
000213C2	33.190003	25.0	17910T1	;
A00213C2	33.190003	0.0		;
002484C2	35.84	26.0	17902T1	;
041348C2	39.6	0.0		;
A41348C2	39.6	0.0		;
041739C2	33.290002	2.0	17909T1	;
0010D9C2	39.409998	33.0	17901T1	;
0017BBC2	36.430001	16.0	17901T1	;
02F31EC2	40.200001	9.0	17911T1	;
03B0CEC2	40.089998	1.0	17911T1	;
A3B0CEC2	40.089998	0.0		;
02B190D2	40.430001	0.0		;
040B52D2	37.840001	12.0	17909T1	;
001704D2	28.090001	4.0	17910T1	;
001EE6D2	49.89	0.0		;
A01EE6D2	49.89	3.11294	TYPE3	;
001FA9D2	41.340001	0.0		;
00196AD2	40.200001	0.0		;
A0196AD2	40.200001	0.0		;
00196BD2	35.380002	0.0		;
00248DD2	64.43	0.0		;
000F6ED2	39.0	5.0	17901T1	;
001F7ED2	35.319999	7.0	17902T1	;
A01F7ED2	35.319999	0.0		;
001972E2	32.489997	0.0		;
001704E2	27.65	3.0	17910T1	;
002486E2	40.989999	2.0	17902T1	;
001967E2	40.759999	0.0		;
001968E2	36.29	16.0	17910T1	;
041B09E2	42.34	0.0		;
A41B09E2	42.34	0.0		;
03CF5EE2	29.789999	3.0	17901T1	;
A3CF5EE2	29.789999	0.0		;
001F7EE2	35.349999	0.0		;
0024BEE2	34.509999	1.0	17909T1	;
A024BEE2	34.509999	0.0		;
002970F2	30.830001	9.0	17909T1	;
001704F2	26.7	8.0	17910T1	;
A01704F2	26.7	0.0		;
02B425F2	40.59	0.0		;
031FD5F2	30.549999	5.0	17902T1	;17902P08
0013F6F2	41.009998	0.0		;
001EE7F2	45.269998	8.0	17902T1	;
A01EE7F2	45.269998	0.0		;
001968F2	40.6	7.0	17911T1	;
A01968F2	40.6	0.0		;
000EA8F2	40.410002	26.0	17901T1	;
A00EA8F2	40.410002	0.0		;
04166EF2	32.649997	7.0	17910T1	;
0024BEF2	34.509999	0.0		;
00224003	64.370004	0.0		;
034AD303	27.349999	2.0	17910T1	;
000EA503	35.64	5.0	17910T1	;
A00EA503	35.64	0.0		;
00196903	40.200001	36.0	17911T1	;
A0196903	40.200001	0.0		;
00196A03	40.689999	2.0	17901T1	;
001F9A03	35.130001	0.0		;
A01F9A03	35.130001	0.0		;
00156E03	35.319999	2.0	17902T1	;
000F8613	34.020001	24.0	17901T1	;
A00F8613	34.020001	0.0		;
03CFD713	41.190001	4.0	17902T1	;
0018F813	34.030003	17.0	17909T1	;
041E3913	35.209999	3.0	17902T1	;
00196913	40.500001	5.0	17911T1	;
A0196913	40.500001	0.0		;
03DABA13	30.549999	0.0		;
A3DABA13	30.549999	0.0		;
001F7F13	39.050001	3.0	17902T1	;
A01F7F13	39.050001	0.0		;
00196923	40.200001	11.0	17901T1	;
A0196923	40.200001	0.0		;
00196A23	40.6	49.0	17901T1	;
041AFA23	43.760002	5.0	17901T1	;
A41AFA23	43.760002	0.0		;
0028EF23	64.599999	0.0		;
A028EF23	64.599999	0.0		;
03D1F033	28.49	14.0	17901T1	;
A3D1F033	28.49	0.0		;
00178133	40.169998	0.0		;
00197333	31.389999	4.0	17910T1	;
0018C333	31.279999	2.0	17902T1	;
02BC7433	28.499999	9.0	17910T1	;
00170533	34.700002	0.0		;
00196933	40.200001	3.0	17901T1	;
00196A33	39.98	4.0	17901T1	;
041B7D33	31.61	2.0	17902T1	;
A41B7D33	31.61	0.0		;
02E78F33	32.049998	0.0		;
A2E78F33	32.049998	0.0		;
00172143	37.150001	6.0	17902T1	;
00197343	32.930001	0.0		;
00170543	31.429999	0.0		;
A0170543	31.429999	0.0		;
00196743	43.829998	0.0		;
00011A43	40.340002	8.0	17911T1	;
00196A43	40.200001	28.0	17911T1	;
A0196A43	40.200001	0.0		;
00196C43	34.889999	6.0	17909T1	;
03FE8053	31.6	9.0	17902T1	;
03EF8153	26.380001	0.0		;
00197353	32.529999	0.0		;
04121453	35.360001	2.0	17902T1	;
A4121453	35.360001	0.0		;
040D4453	26.380001	48.0	17910T1	;
00196753	43.910002	1.0	17901T1	;
03241853	40.6	0.0		;
A3241853	40.6	0.0		;
03E60953	30.669999	0.0		;
00196953	39.800002	0.0		;
A0196953	39.800002	0.0		;
000A1A53	34.54	0.0		;
A00A1A53	34.54	0.0		;
03DCED53	33.89	3.0	17909T1	;
00123F53	32.430001	5.0	17901T1	;
032EEF53	33.519999	6.0	17902T1	;
0019E063	31.560001	1.0	17902T1	;
A019E063	31.560001	0.0		;
041BA263	32.3	0.0		;
00248363	33.939999	4.0	17902T1	;
02B17463	40.200001	0.0		;
A2B17463	40.200001	0.0		;
001EE763	34.490001	0.0		;
A01EE763	34.490001	0.0		;
00196863	42.87	14.0	17901T1	;
00178863	33.25	0.0		;
00097C63	35.740001	1.0	17911T1	;
041B1273	35.419997	0.0		;
00196773	43.680002	0.0		;
00196A73	40.200001	2.0	17901T1	;
A0196A73	40.200001	0.0		;
040D6A73	34.579997	0.0		;
00196B73	40.13	1.0	17909T1	;
00297083	29.500001	0.0		;
001EE783	40.446	2.0	17902T1	;17902P03
040D7A83	25.719999	2.0	17910T1	;
00215B83	40.200001	26.0	17901T1	;
0412DB83	35.649997	31.0	17910T1	;
A412DB83	35.649997	0.0		;
00197293	27.980001	12.0	17910T1	;
A0197293	27.980001	0.0		;
001EE793	41.919998	0.0		;
A0196993	39.839999	0.0		;
03DABA93	30.519999	0.0		;
A3DABA93	30.519999	0.0		;
00196B93	37.73	2.0	17909T1	;
A0196B93	37.73	2.06631	TYPE3	;
000CBF93	39.6	5.0	17901T1	;
040B53A3	33.790002	7.0	17909T1	;
000C83A3	33.530003	14.0	17910T1	;
041B08A3	41.389998	0.0		;
A41B08A3	41.389998	0.0		;
03CF2BA3	32.14	1.0	17901T1	;
A3CF2BA3	32.14	0.0		;
04039EA3	34.0	16.0	17910T1	;
A4039EA3	34.119	0.0		;17910P08
000D0FA3	38.680001	14.0	17901T1	;
000EC0B3	32.700001	1.0	17910T1	;
001A11B3	32.079999	11.0	17909T1	;
001972B3	30.77	1.0	17910T1	;
A01972B3	30.77	0.0		;
041676B3	31.42	0.0		;
002968B3	65.418	0.0		;179TM1P06
000213C3	33.150001	0.0		;
03E9B3C3	35.740001	0.0		;
A3E9B3C3	35.740001	0.0		;
041B04C3	46.670001	14.0	17902T1	;
041B26C3	35.34	0.0		;
A41B26C3	35.34	0.0		;
001EE7C3	35.419997	2.0	17902T1	;
02D9CDC3	27.400001	2.0	17910T1	;
A2D9CDC3	27.400001	0.0		;
02F31EC3	40.200001	5.0	17901T1	;
041B00D3	40.720002	0.0		;
A41B00D3	40.720002	0.0		;
001972D3	27.959999	28.999998	17910T1	;
A01972D3	27.959999	0.0		;
0003BBD3	31.57	8.0	17902T1	;
00156DD3	38.169999	0.0		;
A0156DD3	38.169999	0.0		;
0024BED3	32.350003	5.0	17909T1	;
00223FD3	64.419996	0.0		;
03D5DFD3	37.329997	30.0	17909T1	;
001400E3	25.449999	2.0	17910T1	;
A01400E3	25.449999	0.0		;
002970E3	29.460001	3.0	17909T1	;
A02970E3	29.460001	0.0		;
001EE6E3	34.099999	0.0		;
A01EE6E3	34.099999	0.0		;
00023EE3	36.98	9.0	17911T1	;
000F6EE3	38.91	13.0	17901T1	;
A00F6EE3	38.91	0.0		;
041672F3	35.07	7.0	17909T1	;
001972F3	32.470001	0.0		;
001973F3	35.53	0.0		;
A01973F3	35.53	0.0		;
0414E3F3	37.680001	0.0		;
A414E3F3	37.680001	0.0		;
001704F3	25.979999	0.0		;
A01704F3	25.979999	0.0		;
041936F3	40.239998	2.0	17901T1	;
001EE7F3	44.990001	8.0	17902T1	;
001158F3	31.940001	13.0	17902T1	;
04166EF3	32.759999	0.0		;
A4166EF3	32.759999	0.0		;
00197304	32.36	0.0		;
A0197304	32.36	0.0		;
00196804	39.730002	0.0		;
00196904	40.500001	32.0	17911T1	;
A0196904	40.500001	0.0		;
00215C04	35.290001	0.0		;
00156E04	35.23	2.0	17902T1	;
0024BF04	33.78	0.0		;
00248614	42.589999	2.0	17902T1	;
A0248614	42.589999	0.0		;
00196A14	40.689999	16.0	17901T1	;
A0196A14	40.689999	0.0		;
0028EF14	64.540003	0.0		;
041B1024	40.67	0.0		;
03D38324	33.169998	4.0	17910T1	;
A3D38324	33.169998	0.0		;
00011924	40.169998	3.0	17911T1	;
A0011924	40.169998	0.0		;
00196924	40.256002	17.0	17901T1	;17901P06
00215B24	40.168998	0.0		;17901P02
00196C24	33.7	0.0		;
0013ED24	34.700002	0.0		;
0028EE24	67.300002	0.0		;
0013F734	32.663003	7.0	17901T1	;17901P14
00196834	39.360001	0.0		;
00011934	39.009999	5.0	17911T1	;
00196C34	36.850003	0.0		;
A0196C34	36.850003	0.0		;
00197344	34.370003	4.0	17909T1	;
0018C344	34.66	1.0	17909T1	;
03B15444	39.479998	19.0	17911T1	;
04138444	47.350001	0.0		;
0018C444	35.61	0.0		;
000F0B44	38.439999	5.0	17901T1	;
00196B44	34.509999	23.0	17909T1	;
A0196B44	34.509999	0.0		;
03E8E754	35.029998	0.0		;
A3E8E754	35.029998	0.0		;
00011954	40.159999	21.0	17911T1	;
040D6954	34.8	0.0		;
00237A54	31.999999	8.0	17902T1	;
00140164	25.66	3.0	17910T1	;
00197364	25.990001	0.0		;
A0197364	25.990001	0.0		;
04138464	40.98	0.0		;
0421B664	36.36	0.0		;
00196764	43.79	0.0		;
03EF8764	26.530001	0.0		;
A3EF8764	26.530001	0.0		;
00196964	39.800002	0.0		;
A0196964	39.800002	0.0		;
041B0E64	40.379999	0.0		;
04183074	47.91	0.0		;
A4183074	47.91	0.0		;
00197374	27.73	0.0		;
00248374	32.810001	5.0	17902T1	;
A0248374	32.810001	0.0		;
03DDD474	29.730001	2.0	17909T1	;
A3DDD474	29.730001	0.0		;
04167574	27.279999	0.0		;
04167674	31.389999	0.0		;
04121774	35.19	1.0	17902T1	;
04173774	32.419999	0.0		;
A4173774	32.419999	0.0		;
001EE774	41.12	2.0	17902T1	;
03D05974	25.990001	32.0	17910T1	;
001CA974	35.64	5.0	17902T1	;
A01CA974	35.64	0.0		;
001F9A74	36.63	0.0		;
00140B74	27.330001	0.0		;
000D4D74	40.009998	0.0		;
04121884	39.350002	0.0		;
A4121884	39.350002	0.0		;
00196984	39.9	0.0		;
00196A84	40.500001	6.0	17911T1	;
A0196A84	40.500001	0.0		;
0412DB84	35.809997	0.0		;
041A7D84	64.609998	0.0		;
A41A7D84	64.609998	0.0		;
00297094	30.04	0.0		;
00197294	32.29	16.0	17910T1	;
A0197294	32.29	0.0		;
00170494	26.099999	0.0		;
041C5494	31.389999	0.0		;
001EE794	41.950001	2.0	17902T1	;
A01EE794	41.950001	0.0		;
00011994	39.23	0.0		;
00177994	35.520001	0.0		;
A0177994	35.520001	0.0		;
00196A94	40.500001	10.0	17911T1	;
041B9C94	40.679999	0.0		;
A41B9C94	40.679999	0.0		;
03DCDF94	33.799999	3.0	17909T1	;
001972A4	28.309999	57.999996	17910T1	;
A01972A4	28.309999	0.0		;
03EF84A4	26.530001	1.0	17910T1	;
001EE7A4	40.110002	0.0		;
A01EE7A4	40.110002	0.0		;
001969A4	40.229999	0.0		;
00196BA4	34.57	2.0	17909T1	;
00020DA4	33.010003	0.0		;
A0020DA4	33.010003	0.0		;
041BA1B4	40.6	0.0		;
A41BA1B4	40.6	0.0		;
041AF5B4	40.280001	3.0	17901T1	;
A41AF5B4	40.280001	0.0		;
00196AB4	40.22	21.0	17901T1	;
A0196AB4	40.22	0.0		;
00197DB4	31.619999	3.0	17909T1	;
02D9CDB4	26.359999	8.0	17910T1	;
000D92C4	39.999999	8.0	17901T1	;
A00D92C4	39.999999	0.0		;
030EB4C4	36.380001	2.0	17911T1	;
A30EB4C4	36.380001	0.0		;
041B06C4	42.829998	0.0		;
0013F6C4	38.11	3.0	17901T1	;
001EE7C4	40.37	2.0	17902T1	;
00196AC4	40.200001	4.0	17901T1	;
A02970D4	29.9	0.0		;
0416B0D4	32.770001	15.0	17910T1	;
001972D4	27.970001	0.0		;
002482D4	40.800001	0.0		;
0013F6D4	37.25	0.0		;
001FA9D4	41.35	1.0	17902T1	;
A01FA9D4	41.35	0.0		;
00196AD4	40.200001	0.0		;
A0196AD4	40.200001	0.0		;
002970E4	29.93	0.0		;
040D52E4	39.079999	0.0		;
001972E4	33.02	10.0	17910T1	;
001973E4	36.569999	4.0	17901T1	;
000BB3E4	39.629998	0.0		;
002486E4	39.950002	1.0	17902T1	;
A02486E4	39.950002	0.0		;
03C167E4	40.769999	0.0		;
A3C167E4	40.769999	0.0		;
001967E4	40.769999	0.0		;
A01967E4	40.769999	0.0		;
001969E4	39.210001	0.0		;
00196BE4	34.969997	18.0	17909T1	;
A0196BE4	34.969997	0.0		;
002970F4	30.08	0.0		;
02B425F4	40.580001	0.0		;
041AF5F4	41.020002	0.0		;
0013F6F4	40.759999	2.0	17901T1	;
A013F6F4	40.759999	0.0		;
001968F4	39.9	0.0		;
00215BF4	40.030002	10.0	17902T1	;
A0215BF4	40.030002	0.0		;
001F7EF4	35.330003	7.0	17902T1	;
0024BEF4	33.970002	0.0		;
A024BEF4	33.970002	0.0		;
00021205	33.05	0.0		;
A0021205	33.05	0.0		;
01CB3205	40.200001	0.0		;
034AD305	26.93	8.0	17910T1	;
01CCF305	29.069999	2.0	17910T1	;
00170405	37.920003	5.0	17901T1	;
00197405	35.499999	17.0	17901T1	;
A0197405	35.499999	0.0		;
00196A05	40.640002	2.0	17901T1	;
03DABA05	30.059999	2.0	17909T1	;
A3DABA05	30.059999	0.0		;
040D5D05	33.680001	0.0		;
A40D5D05	33.680001	7.0	17909T1	;
001CAA15	38.600003	7.0	17902T1	;
03DABA15	30.51	0.0		;
00156E15	36.209998	8.0	17902T1	;
0024BF15	31.974001	2.0	17909T1	;17909P08
00197325	32.02	0.0		;
03D38425	33.400002	15.0	17910T1	;
00124A25	32.439998	0.0		;
00156E25	45.760001	0.0		;
00172135	40.779998	0.0		;
A0172135	40.779998	0.0		;
00178135	39.340002	21.0	17911T1	;
00197335	31.389999	2.0	17910T1	;
03D38335	33.029999	1.0	17910T1	;
04121835	35.349999	0.0		;
00011935	39.019998	3.0	17911T1	;
A0011935	39.019998	0.0		;
0410AA35	36.909999	3.0	17909T1	;
00196C35	37.279998	0.0		;
03B0CE35	39.0	0.0		;
A3B0CE35	39.0	0.0		;
02E79145	31.809999	0.0		;
0414E645	35.349999	4.0	17909T1	;
0013F745	32.189999	4.0	17901T1	;
00011A45	39.740001	9.0	17911T1	;
00196A45	40.500001	22.0	17911T1	;
A0196A45	40.500001	0.0		;
00196C45	34.889999	3.0	17909T1	;
A0196C45	34.889999	0.0		;
03B0CE45	39.929999	24.0	17911T1	;
001F7355	40.200001	0.0		;
00297555	30.490001	0.0		;
001EE755	58.729999	0.0		;
03241855	47.999999	0.0		;
00196855	39.629998	0.0		;
A0196855	39.629998	0.0		;
0003D855	28.419999	0.0		;
03E60955	30.680001	1.0	17902T1	;
A3E60955	30.680001	0.0		;
00196C55	37.669997	0.0		;
000FB165	38.979999	1.0	17901T1	;
041B0565	46.929999	0.0		;
A41B0565	46.929999	0.0		;
0421B665	35.939998	0.0		;
03D7B665	35.079997	33.0	17909T1	;
000C2865	39.61	0.0		;
0019D965	34.760003	0.0		;
00196A65	40.200001	1.0	17901T1	;
00196C65	37.81	0.0		;
A0196C65	37.81	0.0		;
040D5E65	34.23	21.0	17909T1	;
A40D5E65	34.23	0.0		;
0002AF65	34.070001	0.0		;
03DCF075	30.099999	0.0		;
A3DCF075	30.099999	0.0		;
000E8475	30.66	4.0	17902T1	;
03DBA875	39.75	14.0	17909T1	;
00177975	37.169997	4.0	17902T1	;
A0177975	37.169997	0.0		;
A2B15A75	38.639998	0.0		;
0019E185	33.730001	6.0	17902T1	;
A019E185	33.730001	0.0		;
03BD9285	26.58	1.0	17910T1	;
00197385	28.64	3.0	17910T1	;
000DD385	38.919998	12.0	17901T1	;
001EE785	44.680002	2.0	17902T1	;
00196A85	40.29	25.0	17911T1	;
00215B85	39.839999	50.0	17901T1	;
0412DB85	35.820001	0.0		;
00156E85	42.81	1.0	17902T1	;
A0156E85	42.81	0.0		;
03D38395	33.000001	10.0	17910T1	;
001FAA95	40.9	3.0	17902T1	;
000BDC95	39.549999	0.0		;
00123F95	26.549999	2.0	17910T1	;
002962A5	66.380007	0.0		;
001966A5	32.670002	2.0	17910T1	;
00202CA5	33.229999	9.0	17909T1	;
0002A2B5	36.299999	2.0	17911T1	;
001966B5	36.069999	10.0	17910T1	;
A01966B5	36.069999	0.0		;
001EE6B5	44.770001	2.0	17902T1	;
03DABAB5	26.980001	0.0		;
00196BB5	36.810001	3.0	17909T1	;
A0196BB5	36.810001	0.0		;
03D96DB5	34.520001	0.0		;
A3D96DB5	34.520001	0.0		;
03D3AEB5	39.549999	2.0	17901T1	;
001972C5	28.649999	0.0		;
001704C5	27.469999	0.0		;
0013F6C5	37.597999	2.0	17901T1	;17901P13
03D23DC5	37.909999	5.0	17901T1	;
02F31EC5	40.200001	0.0		;
001968D5	36.350003	27.0	17910T1	;
A01968D5	36.350003	0.0		;
001249D5	34.760003	0.0		;
001F7ED5	34.750001	8.0	17902T1	;
000FB1E5	39.0	6.0	17901T1	;
001972E5	32.720002	1.0	17910T1	;
A01972E5	32.720002	0.0		;
0013F6E5	37.55	7.0	17901T1	;
001EE7E5	40.52	0.0		;
00196BE5	34.969997	0.0		;
000F6EE5	39.0	17.0	17901T1	;
A00F6EE5	39.0	0.0		;
0024BEE5	34.289997	0.0		;
A024BEE5	34.289997	0.0		;
002482F5	41.400002	0.0		;
001892F5	32.580001	25.0	17909T1	;
001973F5	36.459999	0.0		;
0414E3F5	37.669997	0.0		;
A414E3F5	37.669997	0.0		;
001967F5	35.689999	3.0	17901T1	;
001968F5	40.480002	0.0		;
A01968F5	40.480002	0.0		;
040D69F5	34.73	0.0		;
A40D69F5	34.73	0.0		;
001F99F5	35.19	6.0	17902T1	;
00215BF5	40.9	9.0	17902T1	;
032B0CF5	26.589999	5.0	17910T1	;
A32B0CF5	26.589999	0.0		;
00014DF5	40.190001	4.0	17911T1	;
00156DF5	36.02	6.0	17902T1	;
A0156DF5	36.02	0.0		;
04166EF5	32.540001	9.0	17910T1	;
00124006	28.07	3.0	17910T1	;
01CB3206	36.170003	9.0	17901T1	;
0013F706	38.819999	1.0	17901T1	;
A013F706	38.819999	0.0		;
00196906	40.089998	4.0	17911T1	;
A0196906	40.089998	0.0		;
00124A06	30.370001	3.0	17910T1	;
001FAA06	40.030002	5.0	17902T1	;
040D5B06	35.670003	10.0	17909T1	;
03CF5C06	36.049998	13.0	17901T1	;
A3CF5C06	36.049998	0.0		;
001A1116	32.079999	1.0	17909T1	;
0009F116	34.009997	7.0	17902T1	;
00248316	31.95	7.0	17902T1	;
00248516	35.549999	3.0	17902T1	;
A0248516	35.549999	0.0		;
04120816	31.049999	0.0		;
00196A16	40.469998	0.0		;
A41CFA16	41.009998	0.0		;
00156E16	37.150001	0.0		;
02E78E16	34.117	0.0		;17909P01
A2E78E16	35.999999	0.0		;
0416B226	32.580001	0.0		;
A416B226	32.580001	0.0		;
041BA426	36.580001	0.0		;
A41BA426	36.580001	0.0		;
041D6926	40.580001	0.0		;
A41D6926	40.580001	0.0		;
00124A26	32.430001	0.0		;
A0124A26	32.430001	0.0		;
02BC7436	28.06	4.0	17910T1	;
A2BC7436	28.06	0.0		;
00297536	29.7	0.0		;
03EF9636	29.880001	7.0	17909T1	;
0018F836	35.3	0.0		;
00196936	40.079999	0.0		;
000A1A36	32.48	3.0	17902T1	;
A00A1A36	32.48	0.0		;
03E8EA36	35.349999	2.0	17902T1	;
A3E8EA36	35.349999	0.0		;
00130B36	38.39	15.0	17901T1	;1790112CP_01
00215B36	40.200001	0.0		;
A0215B36	40.200001	0.0		;
00169C36	26.340001	0.0		;
A0169C36	26.340001	0.0		;
001F7F36	35.22	0.0		;
000FB146	35.209999	28.0	17901T1	;
A00FB146	35.209999	0.0		;
04138446	47.420002	0.0		;
00297546	30.54	0.0		;
040B5746	34.779999	9.0	17909T1	;
00011A46	39.839999	3.0	17911T1	;
A0011A46	39.839999	0.0		;
00196A46	40.200001	21.0	17911T1	;
A0196A46	40.200001	0.0		;
0412DB46	35.61	0.0		;
00105056	39.999999	0.0		;
041B1356	32.670002	0.0		;
00197356	32.740001	0.0		;
040D4456	28.839999	20.0	17910T1	;
A40D4456	28.839999	0.0		;
0018C456	35.290001	0.0		;
A018C456	35.290001	0.0		;
03241856	35.23	8.0	17902T1	;
A3241856	35.23	0.0		;
00196956	39.800002	0.0		;
00123F56	32.48	13.0	17901T1	;
A0123F56	32.48	0.0		;
00140166	25.449999	3.0	17910T1	;
041B1166	35.469997	1.0	17902T1	;
A41B1166	35.469997	0.0		;
04138466	40.829999	0.0		;
00196966	39.890001	0.0		;
A0196966	39.890001	0.0		;
03DCEE66	32.229999	4.0	17909T1	;
A3DCEE66	32.229999	0.0		;
000F6F66	36.329998	8.0	17901T1	;
04183076	48.149999	0.0		;
A4183076	48.149999	0.0		;
00297076	28.98	0.0		;
04167576	27.319999	0.0		;
A4167576	27.319999	0.0		;
00196976	39.890001	0.0		;
00196B76	40.800001	12.0	17909T1	;
A0196B76	40.800001	0.0		;
03DCDC76	26.019999	0.0		;
040B4E76	35.209999	11.0	17902T1	;
00156E76	41.389998	3.0	17902T1	;
000F6F76	37.099999	12.0	17901T1	;
0028EF76	66.000002	0.0		;
A028EF76	66.000002	0.0		;
00021086	37.000001	3.0	17911T1	;
02E1F186	31.860001	0.0		;
A2E1F186	31.860001	0.0		;
03BD9286	26.997	4.0	17910T1	;17910P02
03D23686	33.229999	19.0	17901T1	;
001F9986	35.19	0.0		;
0412DB86	35.8	3.0	17910T1	;
A412DB86	35.8	0.0		;
041A7D86	64.609998	0.0		;
A41A7D86	64.609998	0.0		;
00197296	32.610002	0.0		;
00189296	34.710003	0.0		;
A0189296	34.710003	0.0		;
041BA396	32.71	0.0		;
A41BA396	32.71	0.0		;
001EE796	42.81	0.0		;
041AF796	40.59	0.0		;
A41AF796	40.59	0.0		;
00215B96	40.200001	0.0		;
00196B96	36.069999	8.0	17909T1	;
00196C96	39.6	8.0	17901T1	;
041D4F96	40.6	0.0		;
001720A6	53.200002	7.0	179TMT1	;
03B152A6	38.560001	4.0	17911T1	;
002962A6	65.449998	0.0		;
041672A6	35.279999	0.0		;
A41672A6	35.279999	0.0		;
001972A6	28.68	0.0		;
A01972A6	28.68	0.0		;
001892A6	31.178001	14.0	17909T1	;17909P03
03EF84A6	26.54	0.0		;
001969A6	40.6	45.0	17901T1	;
00196BA6	35.330003	3.0	17909T1	;
032B0CA6	27.04	2.0	17910T1	;
00202CA6	32.200001	9.0	17909T1	;
041BA1B6	40.529999	0.0		;
A41BA1B6	40.529999	0.0		;
041AF5B6	40.270001	0.0		;
041B06B6	47.190002	0.0		;
001966B6	38.790001	13.0	17910T1	;
040D79B6	25.990001	1.0	17910T1	;
A40D79B6	25.990001	0.0		;
00196AB6	40.260002	20.0	17901T1	;
A0196AB6	40.260002	0.0		;
00196BB6	37.650001	5.0	17909T1	;
001892C6	31.98	8.0	17909T1	;